&share
 wrf_core = 'ARW',
 max_dom = 3,
 start_date = '2023-08-01_00:00:00','2023-08-01_00:00:00','2023-08-01_00:00:00','2022-01-01_00:00:00','2018-08-01_00:00:00',
 end_date   = '2023-10-01_00:00:00','2023-10-01_00:00:00','2023-10-01_00:00:00','2023-08-01_18:00:00','2023-08-01_18:00:00',
 interval_seconds = 21600,
 io_form_geogrid = 2,
/

&geogrid
 parent_id         =   0,   1,   2,   3,    4,
 parent_grid_ratio =   1,   3,   3,   3,    3,
 i_parent_start    =   1,  29,  55,  39,   33,
 j_parent_start    =   1,  41,  43,  35,   41,
 e_we              =  140,  115, 97,  97,  97,
 e_sn              =  140,  109, 97,  97,  97,
 geog_data_res     = '10ms','5ms','2ms','30ss','30ss',
 dx = 9000,
 dy = 9000, 
 map_proj = 'mercator',
 ref_lat   = -11.5,
 ref_lon   = -74.00,
 truelat1  = -11.5,
 stand_lon = -74.00,
 geog_data_path ='/data/datos/WRF/forzantes/geog/'
/

&ungrib
 out_format = 'WPS',
 !prefix = 'SST',
 prefix = 'ERA5_PL',
/


&metgrid
 fg_name = 'ERA5_PL', 'ERA5_SL',
 !fg_name = 'GFS','SST',
 io_form_metgrid = 2,
 !constants_name = './SST:2020-03-02_12',
 opt_output_from_metgrid_path = '/data/users/ysilva/Data_Era5_Huayta/', 
/



